Version 4
SHEET 1 880 884
WIRE -1232 -304 -1232 -336
WIRE -1120 -304 -1120 -336
WIRE -176 -272 -176 -304
WIRE -96 -272 -176 -272
WIRE -176 -240 -176 -272
WIRE -1232 -192 -1232 -224
WIRE -1168 -192 -1232 -192
WIRE -1120 -192 -1120 -224
WIRE -1120 -192 -1168 -192
WIRE -864 -176 -864 -192
WIRE -720 -176 -864 -176
WIRE 144 -176 144 -192
WIRE -1168 -160 -1168 -192
WIRE -864 -160 -864 -176
WIRE -96 -160 -96 -272
WIRE 112 -160 -96 -160
WIRE 144 -160 144 -176
WIRE -720 -144 -720 -176
WIRE 256 -144 256 -160
WIRE 256 -144 176 -144
WIRE 272 -144 256 -144
WIRE 576 -144 448 -144
WIRE 640 -144 576 -144
WIRE 112 -128 96 -128
WIRE 384 -128 352 -128
WIRE 144 -96 144 -112
WIRE -560 -64 -560 -80
WIRE -864 -48 -864 -80
WIRE -720 -48 -720 -64
WIRE -592 -48 -720 -48
WIRE -560 -48 -560 -64
WIRE -496 -32 -528 -32
WIRE -416 -32 -496 -32
WIRE 96 -32 96 -128
WIRE 96 -32 64 -32
WIRE 192 -32 96 -32
WIRE 272 -32 272 -144
WIRE 352 -32 352 -128
WIRE 496 -32 352 -32
WIRE 576 -32 576 -144
WIRE -720 -16 -720 -48
WIRE -592 -16 -624 -16
WIRE -560 16 -560 0
WIRE -624 96 -624 -16
WIRE -496 96 -496 -32
WIRE -496 96 -624 96
WIRE -96 144 -96 -160
WIRE 128 144 -96 144
WIRE 256 160 256 144
WIRE 256 160 192 160
WIRE 272 160 256 160
WIRE 560 160 432 160
WIRE 656 160 560 160
WIRE 128 176 96 176
WIRE 368 176 352 176
WIRE 96 256 96 176
WIRE 96 256 64 256
WIRE 192 256 96 256
WIRE 272 256 272 160
WIRE 352 256 352 176
WIRE 480 256 352 256
WIRE 560 256 560 160
WIRE -96 416 -96 144
WIRE 128 416 -96 416
WIRE 256 432 256 416
WIRE 256 432 192 432
WIRE 272 432 256 432
WIRE 560 432 432 432
WIRE 624 432 560 432
WIRE 128 448 96 448
WIRE 368 448 352 448
WIRE 96 528 96 448
WIRE 96 528 80 528
WIRE 192 528 96 528
WIRE 272 528 272 432
WIRE 352 528 352 448
WIRE 480 528 352 528
WIRE 560 528 560 432
WIRE -96 704 -96 416
WIRE 128 704 -96 704
WIRE 256 720 256 704
WIRE 256 720 192 720
WIRE 272 720 256 720
WIRE 560 720 432 720
WIRE 608 720 560 720
WIRE 128 736 112 736
WIRE 368 736 352 736
WIRE 112 800 112 736
WIRE 112 800 80 800
WIRE 192 800 112 800
WIRE 272 800 272 720
WIRE 352 800 352 736
WIRE 480 800 352 800
WIRE 560 800 560 720
FLAG -864 -48 0
FLAG -1168 -160 0
FLAG -1232 -336 V12D
FLAG -1120 -336 VN12D
FLAG -864 -192 V3.3D
FLAG 144 -192 VN12D
FLAG 416 -176 VN12D
FLAG 160 128 VN12D
FLAG 400 128 VN12D
FLAG 160 400 VN12D
FLAG 400 400 VN12D
FLAG 160 688 VN12D
FLAG 400 688 VN12D
FLAG 144 -96 V12D
FLAG 416 -112 V12D
FLAG 400 192 V12D
FLAG 160 192 V12D
FLAG 160 464 V12D
FLAG 400 464 V12D
FLAG 160 752 V12D
FLAG 400 752 V12D
FLAG -176 -160 0
FLAG 384 -160 0
FLAG 368 144 0
FLAG 368 416 0
FLAG 368 704 0
FLAG 256 -160 VoRneg
FLAG 256 144 VoGneg
FLAG 256 416 VoBneg
FLAG 256 704 VoIneg
FLAG 0 528 ViB
FLAG -16 256 ViG
FLAG -16 -32 ViR
FLAG 0 800 ViI
FLAG 624 432 VoBpos
FLAG 656 160 VoGpos
FLAG 640 -144 VoRpos
FLAG 608 720 VoIpos
FLAG -176 -384 V1.65D
FLAG -1136 656 0
FLAG -832 656 0
FLAG -832 448 0
FLAG -1136 448 0
FLAG -1136 368 ViR
FLAG -832 368 ViG
FLAG -832 576 ViI
FLAG -1136 576 ViB
FLAG -560 -80 VN12D
FLAG -560 16 V12D
FLAG -416 -32 V1.65D
FLAG -720 64 0
SYMBOL Opamps\\tl084 160 224 M180
SYMATTR InstName U1
SYMBOL voltage -864 -176 R0
WINDOW 123 0 0 Left 2
WINDOW 39 24 44 Left 2
SYMATTR InstName V1
SYMATTR Value 3.3
SYMATTR SpiceLine Rser=10
SYMBOL voltage -1136 352 R0
WINDOW 123 24 124 Left 2
WINDOW 39 24 152 Left 2
SYMATTR InstName V4
SYMATTR Value SINE(1.645 1.645 10000)
SYMATTR SpiceLine Rser=5
SYMBOL Opamps\\tl084 400 224 M180
SYMATTR InstName U2
SYMBOL Opamps\\tl084 160 496 M180
SYMATTR InstName U3
SYMBOL Opamps\\tl084 400 496 M180
SYMATTR InstName U4
SYMBOL Opamps\\tl084 160 784 M180
SYMATTR InstName U5
SYMBOL Opamps\\tl084 400 784 M180
SYMATTR InstName U6
SYMBOL Opamps\\tl084 144 -80 M180
SYMATTR InstName U7
SYMBOL Opamps\\tl084 416 -80 M180
SYMATTR InstName U8
SYMBOL voltage -1232 -320 R0
WINDOW 123 0 0 Left 2
WINDOW 39 24 44 Left 2
SYMATTR InstName V9
SYMATTR Value 12
SYMATTR SpiceLine Rser=10
SYMBOL voltage -1120 -320 R0
WINDOW 123 0 0 Left 2
WINDOW 39 24 44 Left 2
SYMATTR InstName V10
SYMATTR Value -12
SYMATTR SpiceLine Rser=10
SYMBOL res 80 -48 R90
WINDOW 0 0 56 VBottom 2
WINDOW 3 32 56 VTop 2
SYMATTR InstName R1
SYMATTR Value 6.6k
SYMATTR SpiceLine tol=1
SYMBOL res 80 240 R90
WINDOW 0 0 56 VBottom 2
WINDOW 3 32 56 VTop 2
SYMATTR InstName R2
SYMATTR Value 6.6k
SYMATTR SpiceLine tol=1
SYMBOL res 96 512 R90
WINDOW 0 0 56 VBottom 2
WINDOW 3 32 56 VTop 2
SYMATTR InstName R3
SYMATTR Value 6.6k
SYMATTR SpiceLine tol=1
SYMBOL res 96 784 R90
WINDOW 0 0 56 VBottom 2
WINDOW 3 32 56 VTop 2
SYMATTR InstName R4
SYMATTR Value 6.6k
SYMATTR SpiceLine tol=1
SYMBOL res 288 240 R90
WINDOW 0 0 56 VBottom 2
WINDOW 3 32 56 VTop 2
SYMATTR InstName R5
SYMATTR Value 10k
SYMATTR SpiceLine tol=1
SYMBOL res 288 -48 R90
WINDOW 0 0 56 VBottom 2
WINDOW 3 32 56 VTop 2
SYMATTR InstName R6
SYMATTR Value 10k
SYMATTR SpiceLine tol=1
SYMBOL res 288 512 R90
WINDOW 0 0 56 VBottom 2
WINDOW 3 32 56 VTop 2
SYMATTR InstName R7
SYMATTR Value 10k
SYMATTR SpiceLine tol=1
SYMBOL res 288 784 R90
WINDOW 0 0 56 VBottom 2
WINDOW 3 32 56 VTop 2
SYMATTR InstName R8
SYMATTR Value 10k
SYMATTR SpiceLine tol=1
SYMBOL res 368 784 R90
WINDOW 0 0 56 VBottom 2
WINDOW 3 32 56 VTop 2
SYMATTR InstName R9
SYMATTR Value 10k
SYMATTR SpiceLine tol=1
SYMBOL res 576 784 R90
WINDOW 0 0 56 VBottom 2
WINDOW 3 32 56 VTop 2
SYMATTR InstName R10
SYMATTR Value 10k
SYMATTR SpiceLine tol=1
SYMBOL res 368 512 R90
WINDOW 0 0 56 VBottom 2
WINDOW 3 32 56 VTop 2
SYMATTR InstName R11
SYMATTR Value 10k
SYMATTR SpiceLine tol=1
SYMBOL res 576 512 R90
WINDOW 0 0 56 VBottom 2
WINDOW 3 32 56 VTop 2
SYMATTR InstName R12
SYMATTR Value 10k
SYMATTR SpiceLine tol=1
SYMBOL res 368 240 R90
WINDOW 0 0 56 VBottom 2
WINDOW 3 32 56 VTop 2
SYMATTR InstName R13
SYMATTR Value 10k
SYMATTR SpiceLine tol=1
SYMBOL res 576 240 R90
WINDOW 0 0 56 VBottom 2
WINDOW 3 32 56 VTop 2
SYMATTR InstName R14
SYMATTR Value 10k
SYMATTR SpiceLine tol=1
SYMBOL res 368 -48 R90
WINDOW 0 0 56 VBottom 2
WINDOW 3 32 56 VTop 2
SYMATTR InstName R15
SYMATTR Value 10k
SYMATTR SpiceLine tol=1
SYMBOL res 592 -48 R90
WINDOW 0 0 56 VBottom 2
WINDOW 3 32 56 VTop 2
SYMATTR InstName R16
SYMATTR Value 10k
SYMATTR SpiceLine tol=1
SYMBOL res -160 -288 R180
WINDOW 0 36 76 Left 2
WINDOW 3 36 40 Left 2
SYMATTR InstName R17
SYMATTR Value 6.6k
SYMATTR SpiceLine tol=1
SYMBOL res -160 -144 R180
WINDOW 0 36 76 Left 2
WINDOW 3 36 40 Left 2
SYMATTR InstName R18
SYMATTR Value 10k
SYMATTR SpiceLine tol=1
SYMBOL voltage -1136 560 R0
WINDOW 123 24 124 Left 2
WINDOW 39 24 152 Left 2
SYMATTR InstName V5
SYMATTR Value SINE(0 3.29 10000)
SYMATTR SpiceLine Rser=5
SYMBOL voltage -832 352 R0
WINDOW 123 24 124 Left 2
WINDOW 39 24 152 Left 2
SYMATTR InstName V6
SYMATTR Value SINE(0 3.29 10000)
SYMATTR SpiceLine Rser=5
SYMBOL voltage -832 560 R0
WINDOW 123 24 124 Left 2
WINDOW 39 24 152 Left 2
SYMATTR InstName V7
SYMATTR Value SINE(0 3.29 10000)
SYMATTR SpiceLine Rser=5
SYMBOL Opamps\\tl084 -560 32 M180
SYMATTR InstName U9
SYMBOL res -736 -160 R0
SYMATTR InstName R19
SYMATTR Value 10k
SYMBOL res -736 -32 R0
SYMATTR InstName R20
SYMATTR Value 10k
TEXT -1266 868 Left 2 !.tran 0 0.5m 0 0.002m
