Version 4
SHEET 1 880 888
WIRE -336 -384 -400 -384
WIRE -304 -384 -336 -384
WIRE -192 -384 -224 -384
WIRE -144 -384 -192 -384
WIRE 0 -384 -64 -384
WIRE -336 -352 -336 -384
WIRE -192 -352 -192 -384
WIRE 0 -352 0 -384
WIRE -1232 -304 -1232 -336
WIRE -1120 -304 -1120 -336
WIRE -1232 -192 -1232 -224
WIRE -1168 -192 -1232 -192
WIRE -1120 -192 -1120 -224
WIRE -1120 -192 -1168 -192
WIRE -1168 -160 -1168 -192
WIRE 256 -144 256 -160
WIRE 256 -144 176 -144
WIRE 272 -144 256 -144
WIRE 576 -144 448 -144
WIRE 640 -144 576 -144
WIRE 384 -128 352 -128
WIRE -1280 -32 -1280 -48
WIRE -1136 -32 -1280 -32
WIRE 272 -32 272 -144
WIRE 352 -32 352 -128
WIRE 496 -32 352 -32
WIRE 576 -32 576 -144
WIRE -1280 -16 -1280 -32
WIRE -1136 0 -1136 -32
WIRE -976 80 -976 64
WIRE -1280 96 -1280 64
WIRE -1136 96 -1136 80
WIRE -1008 96 -1136 96
WIRE -976 96 -976 80
WIRE -912 112 -944 112
WIRE -832 112 -912 112
WIRE -1136 128 -1136 96
WIRE -1008 128 -1040 128
WIRE -976 160 -976 144
WIRE 256 160 256 144
WIRE 256 160 192 160
WIRE 272 160 256 160
WIRE 560 160 432 160
WIRE 656 160 560 160
WIRE 368 176 352 176
WIRE -1040 240 -1040 128
WIRE -912 240 -912 112
WIRE -912 240 -1040 240
WIRE 272 256 272 160
WIRE 352 256 352 176
WIRE 480 256 352 256
WIRE 560 256 560 160
WIRE -1072 384 -1136 384
WIRE -1008 384 -1072 384
WIRE -944 384 -1008 384
WIRE -928 384 -944 384
WIRE -1136 416 -1136 384
WIRE 256 432 256 416
WIRE 256 432 192 432
WIRE 272 432 256 432
WIRE 560 432 432 432
WIRE 624 432 560 432
WIRE 368 448 352 448
WIRE 272 528 272 432
WIRE 352 528 352 448
WIRE 480 528 352 528
WIRE 560 528 560 432
WIRE 256 720 256 704
WIRE 256 720 192 720
WIRE 272 720 256 720
WIRE 560 720 432 720
WIRE 608 720 560 720
WIRE 368 736 352 736
WIRE 272 800 272 720
WIRE 352 800 352 736
WIRE 480 800 352 800
WIRE 560 800 560 720
FLAG -1280 96 0
FLAG -1168 -160 0
FLAG -1232 -336 V12D
FLAG -1120 -336 VN12D
FLAG -1280 -48 V2.5D
FLAG 416 -176 VN12D
FLAG 400 128 VN12D
FLAG 400 400 VN12D
FLAG 400 688 VN12D
FLAG 416 -112 V12D
FLAG 400 192 V12D
FLAG 400 464 V12D
FLAG 400 752 V12D
FLAG 384 -160 0
FLAG 368 144 0
FLAG 368 416 0
FLAG 368 704 0
FLAG 256 -160 VoRpos
FLAG 256 144 VoGpos
FLAG 256 416 VoBpos
FLAG 256 704 VoIpos
FLAG 192 432 ViB
FLAG 192 160 ViG
FLAG 176 -144 ViR
FLAG 192 720 ViI
FLAG 624 432 VoBneg
FLAG 656 160 VoGneg
FLAG 640 -144 VoRneg
FLAG 608 720 VoIneg
FLAG -1136 496 0
FLAG -1136 384 ViR
FLAG -976 64 VN12D
FLAG -976 160 V12D
FLAG -832 112 V1.25D
FLAG -1136 208 0
FLAG -336 -288 0
FLAG -192 -288 0
FLAG 0 -272 0
FLAG -480 -384 VoRpos
FLAG -1072 384 ViG
FLAG -1008 384 ViB
FLAG -944 384 ViI
SYMBOL voltage -1280 -32 R0
WINDOW 123 0 0 Left 2
WINDOW 39 -139 60 Left 2
SYMATTR SpiceLine Rser=7.5
SYMATTR InstName V1
SYMATTR Value 2.5
SYMBOL voltage -1136 400 R0
WINDOW 123 24 124 Left 2
WINDOW 39 24 152 Left 2
WINDOW 3 -306 49 Left 2
SYMATTR SpiceLine Rser=7.5
SYMATTR InstName V4
SYMATTR Value PWL(0 0 0.997m 0 1m 2.5)
SYMBOL Opamps\\tl084 400 224 M180
SYMATTR InstName U2
SYMBOL Opamps\\tl084 400 496 M180
SYMATTR InstName U4
SYMBOL Opamps\\tl084 400 784 M180
SYMATTR InstName U6
SYMBOL Opamps\\tl084 416 -80 M180
SYMATTR InstName U8
SYMBOL voltage -1232 -320 R0
WINDOW 123 0 0 Left 2
WINDOW 39 -237 43 Left 2
SYMATTR SpiceLine Rser=10 Cpar=5u
SYMATTR InstName V9
SYMATTR Value 12
SYMBOL voltage -1120 -320 R0
WINDOW 123 0 0 Left 2
WINDOW 39 39 50 Left 2
SYMATTR SpiceLine Rser=10 Cpar=5u
SYMATTR InstName V10
SYMATTR Value -12
SYMBOL res 368 784 R90
WINDOW 0 0 56 VBottom 2
WINDOW 3 32 56 VTop 2
SYMATTR InstName R9
SYMATTR Value 10k
SYMATTR SpiceLine tol=1
SYMBOL res 576 784 R90
WINDOW 0 0 56 VBottom 2
WINDOW 3 32 56 VTop 2
SYMATTR InstName R10
SYMATTR Value 10k
SYMATTR SpiceLine tol=1
SYMBOL res 368 512 R90
WINDOW 0 0 56 VBottom 2
WINDOW 3 32 56 VTop 2
SYMATTR InstName R11
SYMATTR Value 10k
SYMATTR SpiceLine tol=1
SYMBOL res 576 512 R90
WINDOW 0 0 56 VBottom 2
WINDOW 3 32 56 VTop 2
SYMATTR InstName R12
SYMATTR Value 10k
SYMATTR SpiceLine tol=1
SYMBOL res 368 240 R90
WINDOW 0 0 56 VBottom 2
WINDOW 3 32 56 VTop 2
SYMATTR InstName R13
SYMATTR Value 10k
SYMATTR SpiceLine tol=1
SYMBOL res 576 240 R90
WINDOW 0 0 56 VBottom 2
WINDOW 3 32 56 VTop 2
SYMATTR InstName R14
SYMATTR Value 10k
SYMATTR SpiceLine tol=1
SYMBOL res 368 -48 R90
WINDOW 0 0 56 VBottom 2
WINDOW 3 32 56 VTop 2
SYMATTR InstName R15
SYMATTR Value 10k
SYMATTR SpiceLine tol=1
SYMBOL res 592 -48 R90
WINDOW 0 0 56 VBottom 2
WINDOW 3 32 56 VTop 2
SYMATTR InstName R16
SYMATTR Value 10k
SYMATTR SpiceLine tol=1
SYMBOL Opamps\\tl084 -976 176 M180
SYMATTR InstName U9
SYMBOL res -1152 -16 R0
SYMATTR InstName R19
SYMATTR Value 10k
SYMBOL res -1152 112 R0
SYMATTR InstName R20
SYMATTR Value 10k
SYMBOL cap -208 -352 R0
SYMATTR InstName C1
SYMATTR Value 0.05u
SYMBOL cap -352 -352 R0
SYMATTR InstName C2
SYMATTR Value 0.05u
SYMBOL res -384 -400 R90
WINDOW 0 0 56 VBottom 2
WINDOW 3 32 56 VTop 2
SYMATTR InstName R17
SYMATTR Value 150
SYMATTR SpiceLine tol=1
SYMBOL ind -320 -368 R270
WINDOW 0 32 56 VTop 2
WINDOW 3 5 56 VBottom 2
SYMATTR InstName L1
SYMATTR Value 500u
SYMATTR SpiceLine Rser=100
SYMBOL ind -160 -368 R270
WINDOW 0 32 56 VTop 2
WINDOW 3 5 56 VBottom 2
SYMATTR InstName L2
SYMATTR Value 500u
SYMATTR SpiceLine Rser=100
SYMBOL res 16 -256 R180
WINDOW 0 36 76 Left 2
WINDOW 3 36 40 Left 2
SYMATTR InstName R18
SYMATTR Value 100k
SYMATTR SpiceLine tol=1
TEXT -1264 872 Left 2 !.tran 0 2m 0.9m 0.002m
