Version 4
SHEET 1 2920 1924
WIRE -1008 -656 -1504 -656
WIRE -496 -656 -928 -656
WIRE 1184 -544 1120 -544
WIRE 1248 -544 1184 -544
WIRE 1312 -544 1248 -544
WIRE 1328 -544 1312 -544
WIRE 2272 -544 2208 -544
WIRE 2336 -544 2272 -544
WIRE -1504 -512 -1504 -656
WIRE -1296 -512 -1504 -512
WIRE -1136 -512 -1216 -512
WIRE -496 -512 -496 -656
WIRE -496 -512 -800 -512
WIRE 1120 -512 1120 -544
WIRE 2208 -512 2208 -544
WIRE -1504 -432 -1504 -512
WIRE -1136 -432 -1504 -432
WIRE -752 -432 -800 -432
WIRE -752 -400 -752 -432
WIRE -496 -368 -496 -512
WIRE -1504 -352 -1504 -432
WIRE -1392 -352 -1504 -352
WIRE -1296 -352 -1312 -352
WIRE -1136 -352 -1296 -352
WIRE -672 -352 -800 -352
WIRE 1824 -336 1824 -368
WIRE -672 -320 -672 -352
WIRE -1296 -272 -1296 -352
WIRE -1296 -272 -1520 -272
WIRE -1136 -272 -1168 -272
WIRE -720 -272 -800 -272
WIRE -1168 -240 -1168 -272
WIRE 1024 -224 1024 -240
WIRE 1024 -224 944 -224
WIRE 1040 -224 1024 -224
WIRE 1344 -224 1216 -224
WIRE 1408 -224 1344 -224
WIRE 1824 -224 1824 -256
WIRE 1920 -224 1824 -224
WIRE 2144 -224 1920 -224
WIRE -1520 -208 -1520 -272
WIRE -672 -208 -672 -256
WIRE 1152 -208 1120 -208
WIRE 2336 -208 2208 -208
WIRE 2416 -208 2416 -224
WIRE 2416 -208 2336 -208
WIRE 2432 -208 2416 -208
WIRE 2736 -208 2608 -208
WIRE 2800 -208 2736 -208
WIRE -1296 -192 -1296 -272
WIRE -720 -192 -720 -272
WIRE -720 -192 -896 -192
WIRE 1824 -192 1824 -224
WIRE 2144 -192 2112 -192
WIRE 2544 -192 2512 -192
WIRE 96 -176 96 -192
WIRE 240 -176 96 -176
WIRE 96 -160 96 -176
WIRE 240 -144 240 -176
WIRE -992 -128 -1120 -128
WIRE -896 -128 -896 -192
WIRE -896 -128 -912 -128
WIRE -832 -128 -896 -128
WIRE -496 -128 -496 -304
WIRE -496 -128 -752 -128
WIRE -336 -128 -496 -128
WIRE -240 -128 -336 -128
WIRE 1040 -112 1040 -224
WIRE 1120 -112 1120 -208
WIRE 1264 -112 1120 -112
WIRE 1344 -112 1344 -224
WIRE -496 -96 -496 -128
WIRE -240 -96 -240 -128
WIRE 2032 -96 2000 -96
WIRE 2112 -96 2112 -192
WIRE 2256 -96 2112 -96
WIRE 2336 -96 2336 -208
WIRE 2432 -96 2432 -208
WIRE 2512 -96 2512 -192
WIRE 2656 -96 2512 -96
WIRE 2736 -96 2736 -208
WIRE 1824 -80 1824 -112
WIRE -1520 -64 -1520 -128
WIRE -1296 -64 -1296 -128
WIRE 400 -64 400 -80
WIRE 96 -48 96 -80
WIRE 240 -48 240 -64
WIRE 368 -48 240 -48
WIRE 400 -48 400 -64
WIRE -1120 -32 -1120 -128
WIRE 464 -32 432 -32
WIRE 544 -32 464 -32
WIRE 240 -16 240 -48
WIRE 368 -16 336 -16
WIRE -496 16 -496 -32
WIRE -240 16 -240 -16
WIRE -240 16 -496 16
WIRE 400 16 400 0
WIRE -496 48 -496 16
WIRE 1024 80 1024 64
WIRE 1024 80 960 80
WIRE 1040 80 1024 80
WIRE 1328 80 1200 80
WIRE 1424 80 1328 80
WIRE 1920 80 1920 -224
WIRE 2144 80 1920 80
WIRE 336 96 336 -16
WIRE 464 96 464 -32
WIRE 464 96 336 96
WIRE 1136 96 1120 96
WIRE 2336 96 2208 96
WIRE 2416 96 2416 80
WIRE 2416 96 2336 96
WIRE 2432 96 2416 96
WIRE 2736 96 2608 96
WIRE 2800 96 2736 96
WIRE 2144 112 2112 112
WIRE 2544 112 2512 112
WIRE -1232 176 -1328 176
WIRE -736 176 -1232 176
WIRE 1040 176 1040 80
WIRE 1120 176 1120 96
WIRE 1248 176 1120 176
WIRE 1328 176 1328 80
WIRE 2032 208 2000 208
WIRE 2112 208 2112 112
WIRE 2256 208 2112 208
WIRE 2336 208 2336 96
WIRE 2432 208 2432 96
WIRE 2512 208 2512 112
WIRE 2656 208 2512 208
WIRE 2736 208 2736 96
WIRE -1232 256 -1232 176
WIRE -1136 256 -1232 256
WIRE -736 256 -736 176
WIRE -736 256 -800 256
WIRE 512 272 112 272
WIRE -1328 288 -1328 176
WIRE -1232 336 -1232 256
WIRE -1136 336 -1232 336
WIRE -640 336 -800 336
WIRE -528 336 -640 336
WIRE -320 336 -448 336
WIRE -640 352 -640 336
WIRE 1024 352 1024 336
WIRE 1024 352 960 352
WIRE 1040 352 1024 352
WIRE 1328 352 1200 352
WIRE 1392 352 1328 352
WIRE 112 368 112 272
WIRE 208 368 176 368
WIRE 320 368 288 368
WIRE 368 368 320 368
WIRE 1136 368 1120 368
WIRE 176 400 176 368
WIRE 320 400 320 368
WIRE 512 400 512 272
WIRE -1328 416 -1328 368
WIRE -1328 416 -1552 416
WIRE -1136 416 -1328 416
WIRE -720 416 -800 416
WIRE -320 432 -320 336
WIRE -1552 448 -1552 416
WIRE -720 448 -720 416
WIRE 1040 448 1040 352
WIRE 1120 448 1120 368
WIRE 1248 448 1120 448
WIRE 1328 448 1328 352
WIRE -1328 480 -1328 416
WIRE -1136 496 -1184 496
WIRE -752 496 -800 496
WIRE -752 544 -752 496
WIRE -752 544 -864 544
WIRE -1552 576 -1552 528
WIRE -1184 576 -1184 496
WIRE -720 576 -720 512
WIRE -720 576 -1184 576
WIRE -1328 592 -1328 544
WIRE 1888 592 1888 560
WIRE 2496 592 2448 592
WIRE 2688 608 2560 608
WIRE 2736 608 2688 608
WIRE -1008 624 -1088 624
WIRE -864 624 -864 544
WIRE -864 624 -928 624
WIRE -816 624 -864 624
WIRE -720 624 -720 576
WIRE -720 624 -736 624
WIRE -640 624 -640 416
WIRE -640 624 -720 624
WIRE -464 624 -640 624
WIRE -352 624 -464 624
WIRE 2496 624 2464 624
WIRE -640 640 -640 624
WIRE 1024 640 1024 624
WIRE 1024 640 960 640
WIRE 1040 640 1024 640
WIRE 1328 640 1200 640
WIRE 1376 640 1328 640
WIRE -352 656 -352 624
WIRE 1136 656 1120 656
WIRE 1040 720 1040 640
WIRE 1120 720 1120 656
WIRE 1248 720 1120 720
WIRE 1328 720 1328 640
WIRE 2352 720 2320 720
WIRE 2464 720 2464 624
WIRE 2464 720 2432 720
WIRE 2560 720 2464 720
WIRE 2688 720 2688 608
WIRE 2688 720 2640 720
WIRE -640 752 -640 704
WIRE -352 752 -352 736
WIRE -352 752 -640 752
WIRE -1088 768 -1088 624
WIRE -640 784 -640 752
FLAG 96 -48 0
FLAG 96 -192 V2.5D
FLAG 1184 -256 VN12D
FLAG 1168 48 VN12D
FLAG 1168 320 VN12D
FLAG 1168 608 VN12D
FLAG 1184 -192 V12D
FLAG 1168 112 V12D
FLAG 1168 384 V12D
FLAG 1168 672 V12D
FLAG 1152 -240 0
FLAG 1136 64 0
FLAG 1136 336 0
FLAG 1136 624 0
FLAG 1024 -240 VoRpos
FLAG 1024 64 VoGpos
FLAG 1024 336 VoBpos
FLAG 1024 624 VoIpos
FLAG 960 352 ViB
FLAG 960 80 ViG
FLAG 944 -224 ViR
FLAG 960 640 ViI
FLAG 1392 352 VoBneg
FLAG 1424 80 VoGneg
FLAG 1408 -224 VoRneg
FLAG 1376 640 VoIneg
FLAG 1120 -432 0
FLAG 1120 -544 ViR
FLAG 400 -80 VN12D
FLAG 400 16 V12D
FLAG 544 -32 V1.25D
FLAG 240 64 0
FLAG 176 464 0
FLAG 320 464 0
FLAG 512 480 0
FLAG 32 368 VoXpos
FLAG 1184 -544 ViG
FLAG 1248 -544 ViB
FLAG 1312 -544 ViI
FLAG 2208 -432 0
FLAG 2208 -544 ViY
FLAG 2272 -544 ViX
FLAG 2576 -240 VN12D
FLAG 2576 -176 V12D
FLAG 2544 -224 0
FLAG 2416 -224 VoXpos
FLAG 2800 -208 VoXneg
FLAG 2176 -240 VN12D
FLAG 2176 -176 V12D
FLAG 2000 -96 ViX
FLAG 2576 64 VN12D
FLAG 2576 128 V12D
FLAG 2544 80 0
FLAG 2416 80 VoYpos
FLAG 2800 96 VoYneg
FLAG 2176 64 VN12D
FLAG 2176 128 V12D
FLAG 2000 208 ViY
FLAG 1824 -368 V1.25D
FLAG 1824 -80 0
FLAG 2528 576 VN12D
FLAG 2528 640 V12D
FLAG 2736 608 VoS
FLAG 1888 672 0
FLAG 1888 560 ViS
FLAG 2448 592 ViS
FLAG 2320 720 0
FLAG -752 -400 0
FLAG -672 -208 0
FLAG -1120 -32 0
FLAG -496 48 0
FLAG -1168 -240 0
FLAG -1296 -64 0
FLAG -1520 -64 0
FLAG -1328 592 0
FLAG -1088 768 0
FLAG -640 784 0
FLAG -320 432 0
FLAG -1552 576 0
FLAG -336 -128 VN12D
FLAG -464 624 V12D
SYMBOL voltage 96 -176 R0
WINDOW 123 0 0 Left 2
WINDOW 39 -139 60 Left 2
SYMATTR SpiceLine Rser=0.5
SYMATTR InstName V1
SYMATTR Value 2.5
SYMBOL voltage 1120 -528 R0
WINDOW 123 24 124 Left 2
WINDOW 39 -142 49 Left 2
WINDOW 3 45 60 Left 2
SYMATTR SpiceLine Rser=7.5
SYMATTR Value PWL(0 0 0.997m 0 1m 2.5)
SYMATTR InstName V2
SYMBOL Opamps\\tl084 1168 144 M180
SYMATTR InstName U1
SYMBOL Opamps\\tl084 1168 416 M180
SYMATTR InstName U2
SYMBOL Opamps\\tl084 1168 704 M180
SYMATTR InstName U3
SYMBOL Opamps\\tl084 1184 -160 M180
SYMATTR InstName U4
SYMBOL res 1136 704 R90
WINDOW 0 0 56 VBottom 2
WINDOW 3 32 56 VTop 2
SYMATTR InstName R1
SYMATTR Value 10k
SYMATTR SpiceLine tol=1
SYMBOL res 1344 704 R90
WINDOW 0 0 56 VBottom 2
WINDOW 3 32 56 VTop 2
SYMATTR InstName R2
SYMATTR Value 10k
SYMATTR SpiceLine tol=1
SYMBOL res 1136 432 R90
WINDOW 0 0 56 VBottom 2
WINDOW 3 32 56 VTop 2
SYMATTR InstName R3
SYMATTR Value 10k
SYMATTR SpiceLine tol=1
SYMBOL res 1344 432 R90
WINDOW 0 0 56 VBottom 2
WINDOW 3 32 56 VTop 2
SYMATTR InstName R4
SYMATTR Value 10k
SYMATTR SpiceLine tol=1
SYMBOL res 1136 160 R90
WINDOW 0 0 56 VBottom 2
WINDOW 3 32 56 VTop 2
SYMATTR InstName R5
SYMATTR Value 10k
SYMATTR SpiceLine tol=1
SYMBOL res 1344 160 R90
WINDOW 0 0 56 VBottom 2
WINDOW 3 32 56 VTop 2
SYMATTR InstName R6
SYMATTR Value 10k
SYMATTR SpiceLine tol=1
SYMBOL res 1136 -128 R90
WINDOW 0 0 56 VBottom 2
WINDOW 3 32 56 VTop 2
SYMATTR InstName R7
SYMATTR Value 10k
SYMATTR SpiceLine tol=1
SYMBOL res 1360 -128 R90
WINDOW 0 0 56 VBottom 2
WINDOW 3 32 56 VTop 2
SYMATTR InstName R8
SYMATTR Value 10k
SYMATTR SpiceLine tol=1
SYMBOL Opamps\\tl084 400 32 M180
SYMATTR InstName U5
SYMBOL res 224 -160 R0
SYMATTR InstName R9
SYMATTR Value 10k
SYMATTR SpiceLine tol=1
SYMBOL res 224 -32 R0
SYMATTR InstName R10
SYMATTR Value 10k
SYMATTR SpiceLine tol=1
SYMBOL cap 304 400 R0
SYMATTR InstName C1
SYMATTR Value 0.05u
SYMBOL cap 160 400 R0
SYMATTR InstName C2
SYMATTR Value 0.05u
SYMBOL res 128 352 R90
WINDOW 0 0 56 VBottom 2
WINDOW 3 32 56 VTop 2
SYMATTR InstName R11
SYMATTR Value 150
SYMATTR SpiceLine tol=1
SYMBOL ind 192 384 R270
WINDOW 0 32 56 VTop 2
WINDOW 3 5 56 VBottom 2
SYMATTR InstName L1
SYMATTR Value 500u
SYMATTR SpiceLine Rser=100
SYMBOL ind 352 384 R270
WINDOW 0 32 56 VTop 2
WINDOW 3 5 56 VBottom 2
SYMATTR InstName L2
SYMATTR Value 500u
SYMATTR SpiceLine Rser=100
SYMBOL res 528 496 R180
WINDOW 0 36 76 Left 2
WINDOW 3 36 40 Left 2
SYMATTR InstName R12
SYMATTR Value 1meg
SYMATTR SpiceLine tol=1
SYMBOL voltage 2208 -528 R0
WINDOW 123 24 124 Left 2
WINDOW 39 -144 44 Left 2
WINDOW 3 45 53 Left 2
SYMATTR SpiceLine Rser=3
SYMATTR Value PWL(0 0.4167 0.997m 0.4167 1m 2.0833)
SYMATTR InstName V5
SYMBOL Opamps\\tl084 2576 -144 M180
SYMATTR InstName U6
SYMBOL res 2528 -112 R90
WINDOW 0 0 56 VBottom 2
WINDOW 3 32 56 VTop 2
SYMATTR InstName R13
SYMATTR Value 10k
SYMATTR SpiceLine tol=1
SYMBOL res 2752 -112 R90
WINDOW 0 0 56 VBottom 2
WINDOW 3 32 56 VTop 2
SYMATTR InstName R14
SYMATTR Value 10k
SYMATTR SpiceLine tol=1
SYMBOL Opamps\\tl084 2176 -144 M180
SYMATTR InstName U7
SYMBOL res 2128 -112 R90
WINDOW 0 0 56 VBottom 2
WINDOW 3 32 56 VTop 2
SYMATTR InstName R15
SYMATTR Value 1.65k
SYMATTR SpiceLine tol=1
SYMBOL res 2352 -112 R90
WINDOW 0 0 56 VBottom 2
WINDOW 3 32 56 VTop 2
SYMATTR InstName R16
SYMATTR Value 10k
SYMATTR SpiceLine tol=1
SYMBOL Opamps\\tl084 2576 160 M180
SYMATTR InstName U8
SYMBOL res 2528 192 R90
WINDOW 0 0 56 VBottom 2
WINDOW 3 32 56 VTop 2
SYMATTR InstName R17
SYMATTR Value 10k
SYMATTR SpiceLine tol=1
SYMBOL res 2752 192 R90
WINDOW 0 0 56 VBottom 2
WINDOW 3 32 56 VTop 2
SYMATTR InstName R18
SYMATTR Value 10k
SYMATTR SpiceLine tol=1
SYMBOL Opamps\\tl084 2176 160 M180
SYMATTR InstName U9
SYMBOL res 2128 192 R90
WINDOW 0 0 56 VBottom 2
WINDOW 3 32 56 VTop 2
SYMATTR InstName R19
SYMATTR Value 1.65k
SYMATTR SpiceLine tol=1
SYMBOL res 2352 192 R90
WINDOW 0 0 56 VBottom 2
WINDOW 3 32 56 VTop 2
SYMATTR InstName R20
SYMATTR Value 10k
SYMATTR SpiceLine tol=1
SYMBOL res 1840 -240 R180
WINDOW 0 36 76 Left 2
WINDOW 3 36 40 Left 2
SYMATTR InstName R21
SYMATTR Value 1.65k
SYMATTR SpiceLine tol=1
SYMBOL res 1840 -96 R180
WINDOW 0 36 76 Left 2
WINDOW 3 36 40 Left 2
SYMATTR InstName R22
SYMATTR Value 10k
SYMATTR SpiceLine tol=1
SYMBOL Opamps\\tl084 2528 672 M180
SYMATTR InstName U10
SYMBOL res 2448 704 R90
WINDOW 0 0 56 VBottom 2
WINDOW 3 32 56 VTop 2
SYMATTR InstName R23
SYMATTR Value 10k
SYMATTR SpiceLine tol=1
SYMBOL res 2656 704 R90
WINDOW 0 0 56 VBottom 2
WINDOW 3 32 56 VTop 2
SYMATTR InstName R24
SYMATTR Value 5.11k
SYMATTR SpiceLine tol=1
SYMBOL voltage 1888 576 R0
WINDOW 123 24 124 Left 2
WINDOW 39 -142 49 Left 2
WINDOW 3 45 60 Left 2
SYMATTR SpiceLine Rser=3
SYMATTR Value PWL(0 0 0.997m 0 1m 3.3)
SYMATTR InstName V6
SYMBOL MC34063 -896 -416 R0
SYMATTR InstName U11
SYMBOL res -896 -144 R90
WINDOW 0 0 56 VBottom 2
WINDOW 3 32 56 VTop 2
SYMATTR InstName R25
SYMATTR Value 10k
SYMBOL res -736 -144 R90
WINDOW 0 0 56 VBottom 2
WINDOW 3 32 56 VTop 2
SYMATTR InstName R26
SYMATTR Value 62k
SYMBOL cap -688 -320 R0
SYMATTR InstName C3
SYMATTR Value 321.4pF
SYMBOL cap -512 -96 R0
WINDOW 3 3 43 Left 2
SYMATTR Value 4.7uF
SYMATTR InstName C4
SYMBOL schottky -512 -368 R0
SYMATTR InstName D1
SYMBOL ind -1024 -640 R270
WINDOW 0 32 56 VTop 2
WINDOW 3 5 56 VBottom 2
SYMATTR InstName L3
SYMATTR Value 216.5uH
SYMBOL res -1200 -528 R90
WINDOW 0 0 56 VBottom 2
WINDOW 3 32 56 VTop 2
SYMATTR InstName R27
SYMATTR Value 180
SYMBOL res -1296 -368 R90
WINDOW 0 0 56 VBottom 2
WINDOW 3 32 56 VTop 2
SYMATTR InstName R28
SYMATTR Value 39.6m
SYMBOL cap -1312 -192 R0
SYMATTR InstName C5
SYMATTR Value 100uF
SYMBOL voltage -1520 -224 R0
WINDOW 123 0 0 Left 2
WINDOW 39 0 0 Left 2
SYMATTR InstName V7
SYMATTR Value 5V
SYMBOL res -256 -112 R0
SYMATTR InstName R29
SYMATTR Value 1k
SYMBOL MC34063 -896 352 R0
SYMATTR InstName U12
SYMBOL res -912 608 R90
WINDOW 0 0 56 VBottom 2
WINDOW 3 32 56 VTop 2
SYMATTR InstName R30
SYMATTR Value 62k
SYMBOL res -720 608 R90
WINDOW 0 0 56 VBottom 2
WINDOW 3 32 56 VTop 2
SYMATTR InstName R31
SYMATTR Value 10k
SYMBOL cap -656 640 R0
SYMATTR InstName C6
SYMATTR Value 4.7uF
SYMBOL schottky -624 416 R180
WINDOW 0 24 64 Left 2
WINDOW 3 24 0 Left 2
SYMATTR InstName D2
SYMBOL cap -736 448 R0
SYMATTR InstName C7
SYMATTR Value 257.9pF
SYMBOL ind -544 352 R270
WINDOW 0 32 56 VTop 2
WINDOW 3 5 56 VBottom 2
SYMATTR InstName L4
SYMATTR Value 173.1uH
SYMBOL res -1344 272 R0
SYMATTR InstName R32
SYMATTR Value 63m
SYMBOL cap -1344 480 R0
SYMATTR InstName C8
SYMATTR Value 100uF
SYMBOL res -368 640 R0
SYMATTR InstName R33
SYMATTR Value 1k
SYMBOL voltage -1552 432 R0
WINDOW 123 0 0 Left 2
WINDOW 39 0 0 Left 2
SYMATTR InstName V8
SYMATTR Value 5V
TEXT 216 -536 Left 2 !.tran 10m uic
TEXT 200 240 Left 2 ;Simple cable simulation
TEXT 216 -216 Left 2 ;Voltage references
TEXT 1120 -632 Left 2 ;Color channels
TEXT 2184 -648 Left 2 ;X / Y channels
TEXT 2168 472 Left 2 ;Shutter
TEXT -1056 -752 Left 2 ;Voltage references
